# AS202137 - [RIPENCC] ANSAT - TELEMACH SLOVENIJA D.O.O. (SI)
91.208.243.0/24
