# AS264437 - [LACNIC] TELEMAC TELECOMUNICACOES LTDA (BR)
131.221.168.0/22
2804:1e94::/32
