# AS34594 - [RIPENCC] OT-AS - TELEMACH HRVATSKA D.O.O. (HR)
151.252.208.0/21
151.252.224.0/19
176.222.32.0/20
185.10.40.0/22
185.115.56.0/22
185.18.60.0/22
185.73.144.0/22
37.205.96.0/20
37.60.128.0/21
5.39.128.0/19
5.43.160.0/19
80.80.48.0/20
85.114.32.0/19
86.32.0.0/15
89.17.0.0/19
89.201.128.0/17
95.178.128.0/17
2a02:ac8::/32
2a03:6100::/32
2a10:5700::/29
